Version 4.1
SHEET 1 1548 1288
WIRE 288 -192 -272 -192
WIRE -272 -64 -272 -192
WIRE 144 -64 -208 -64
WIRE 288 16 288 -192
WIRE 528 16 368 16
WIRE -272 64 -272 -64
WIRE 48 64 -208 64
WIRE 832 64 576 64
WIRE 528 128 528 96
WIRE 528 128 448 128
WIRE 288 192 288 16
WIRE 400 192 288 192
WIRE -272 208 -272 64
WIRE -16 208 -208 208
WIRE 144 288 144 -64
WIRE 192 288 144 288
WIRE 400 288 400 192
WIRE 400 288 368 288
WIRE 48 320 48 64
WIRE 192 320 48 320
WIRE 832 320 832 64
WIRE 832 320 368 320
WIRE 832 336 832 320
WIRE -272 352 -272 208
WIRE -64 352 -208 352
WIRE -16 352 -16 208
WIRE 192 352 -16 352
WIRE 448 352 448 128
WIRE 448 352 368 352
WIRE 752 352 448 352
WIRE -64 384 -64 352
WIRE 192 384 -64 384
WIRE 448 384 448 352
WIRE 448 384 368 384
WIRE 192 416 -208 416
WIRE 512 416 368 416
WIRE 752 416 752 352
WIRE 832 416 752 416
WIRE 192 448 -160 448
WIRE 448 448 448 384
WIRE 448 448 368 448
WIRE 192 480 -128 480
WIRE 400 480 400 288
WIRE 400 480 368 480
WIRE -272 496 -272 352
WIRE -208 496 -208 416
WIRE 192 512 -112 512
WIRE 448 512 448 448
WIRE 448 512 368 512
WIRE 464 512 448 512
WIRE 192 544 -80 544
WIRE 416 544 368 544
WIRE 512 544 512 416
WIRE -272 640 -272 496
WIRE -160 640 -160 448
WIRE -160 640 -208 640
WIRE 464 640 464 512
WIRE -272 784 -272 640
WIRE -128 784 -128 480
WIRE -128 784 -208 784
WIRE -272 928 -272 784
WIRE -112 928 -112 512
WIRE -112 928 -208 928
WIRE -272 1072 -272 928
WIRE -80 1072 -80 544
WIRE -80 1072 -208 1072
WIRE -272 1216 -272 1072
WIRE 416 1216 416 544
WIRE 416 1216 -208 1216
FLAG 512 544 0
FLAG 544 640 0
SYMBOL LED -272 -48 R270
WINDOW 0 72 32 VTop 2
WINDOW 3 0 32 VBottom 2
SYMATTR InstName D1
SYMBOL LED -272 80 R270
WINDOW 0 72 32 VTop 2
WINDOW 3 0 32 VBottom 2
SYMATTR InstName D2
SYMBOL LED -272 224 R270
WINDOW 0 72 32 VTop 2
WINDOW 3 0 32 VBottom 2
SYMATTR InstName D3
SYMBOL LED -272 368 R270
WINDOW 0 72 32 VTop 2
WINDOW 3 0 32 VBottom 2
SYMATTR InstName D4
SYMBOL LED -272 512 R270
WINDOW 0 72 32 VTop 2
WINDOW 3 0 32 VBottom 2
SYMATTR InstName D5
SYMBOL LED -272 656 R270
WINDOW 0 72 32 VTop 2
WINDOW 3 0 32 VBottom 2
SYMATTR InstName D6
SYMBOL LED -272 800 R270
WINDOW 0 72 32 VTop 2
WINDOW 3 0 32 VBottom 2
SYMATTR InstName D7
SYMBOL LED -272 944 R270
WINDOW 0 72 32 VTop 2
WINDOW 3 0 32 VBottom 2
SYMATTR InstName D8
SYMBOL LED -272 1088 R270
WINDOW 0 72 32 VTop 2
WINDOW 3 0 32 VBottom 2
SYMATTR InstName D9
SYMBOL LED -272 1232 R270
WINDOW 0 72 32 VTop 2
WINDOW 3 0 32 VBottom 2
SYMATTR InstName D10
SYMBOL LM3915 272 352 R180
SYMATTR InstName U1
SYMBOL voltage 272 16 R270
WINDOW 0 32 56 VTop 2
WINDOW 3 -32 56 VBottom 2
WINDOW 123 0 0 Left 0
WINDOW 39 0 0 Left 0
SYMATTR InstName V1
SYMATTR Value 12
SYMBOL res 816 320 R0
SYMATTR InstName R1
SYMATTR Value 1000
SYMBOL pot 512 0 R0
SYMATTR InstName U3
SYMBOL voltage 448 640 R270
WINDOW 0 32 56 VTop 2
WINDOW 3 -32 56 VBottom 2
WINDOW 123 0 0 Left 0
WINDOW 39 0 0 Left 0
SYMATTR InstName V2
SYMATTR Value PULSE(0 3 1 1 1 0 0 100)
TEXT -272 1272 Left 2 !.tran 0 10000 1
TEXT 928 144 Left 2 !.include pot.sub
